22
Coordinates from ORCA-job geo
  C   0.41487719364071     -1.69072175260082      0.00012271419446
  C   -0.95315921471575     -1.82550857417718      0.00010838980316
  C   -1.67766333378414     -0.64304587625249      0.00004212247295
  C   -1.04673990413781      0.62479889545283     -0.00000854186683
  C   0.30794186362045      0.76541125003899      0.00000322792456
  C   1.07659049211608     -0.41957144841072      0.00006362866347
  C   2.50346132633286     -0.43425681660666      0.00006738148457
  C   3.33068003042270      0.64466930595696     -0.00006138832004
  C   4.79700877977789      0.56425690990176     -0.00006903043108
  H   5.16874609473305     -0.45562372550054      0.00011724435154
  H   5.20455280522081      1.09199608006468     -0.86695649719928
  H   5.20459547232492      1.09234432737568      0.86658310274343
  H   2.90891973674164      1.64386099375822     -0.00018269139652
  H   2.96507002078111     -1.41449657716865      0.00017020115701
  H   0.75687829125410      1.74522210611114     -0.00002524857967
  O   -1.99162644389464      1.58432464233192     -0.00006806383447
  C   -3.26189767272130      0.92813444889930     -0.00002609330635
  H   -3.81159641542366      1.18388290126353     -0.90326248317287
  H   -3.81156510369628      1.18393901893101      0.90321456753075
  O   -2.99831398462347     -0.49167023384194      0.00001759914393
  H   -1.43993952463138     -2.78823188510152      0.00015037695984
  H   1.02683659066212     -2.58127189042551      0.00017708167743
