9
Coordinates from ORCA-job orca2
  C   -0.33754615963880     -1.08171307503084      0.00001204971054
  C   1.01409506608705     -0.68815360809872      0.00000537062226
  C   1.01404735880797      0.68822135183618      0.00000688766215
  C   -0.33762162900368      1.08168712396145      0.00001436026119
  O   -1.14728304705947     -0.00004080439868      0.00001733544496
  H   -0.82219198206736      2.04492166842585      0.00001760028970
  H   1.85972641148845      1.35545327291043      0.00000342445541
  H   1.85982055199696     -1.35532658054281      0.00000042261037
  H   -0.82205047061111     -2.04498084906286      0.00001314894343
