9
Coordinates from ORCA-job orca2
  C   0.36951217001259      1.12904876577910      0.00000449302780
  C   1.22248141910801     -0.04817586708046      0.00001525949401
  C   0.32444712153347     -1.13655691303105      0.00000125553246
  N   -0.92623627659737     -0.73237839192229     -0.00001846195057
  N   -0.84904946576322      0.68067081709173     -0.00001389425533
  H   -1.71797667750064      1.20100867904036     -0.00002626042548
  H   0.55037842451631     -2.18989245057695      0.00000293623598
  H   2.30038131729722     -0.05319976930734      0.00002892343002
  H   0.62977776739361      2.17605763000689      0.00000924891111
