5
Coordinates from ORCA-job geo
  C   -0.00005042963050      0.00004611239416      0.00004856344509
  Cl  -1.48908297180761      0.97579078373776      0.17859230637873
  Cl  0.78037036400668      0.38347981818066     -1.56370940125272
  Cl  -0.41733527727602     -1.73917579577524      0.04763674322644
  Cl  1.12610021470745      0.37985258146266      1.33743908820246
