12
Coordinates from ORCA-job orca1
  C   -1.33289585594089      1.20643162246585      0.00009452147456
  C   -2.01545392015687      0.00001279316705      0.00008559749434
  C   -1.33291591231814     -1.20642228694454      0.00008112131503
  C   0.05504107497015     -1.20617174942303      0.00008501628282
  C   0.74028441939044     -0.00001438389030      0.00009371615334
  C   0.05506531119248      1.20615442748592      0.00009841827682
  H   0.59014067475706      2.14431678865911      0.00010579340210
  I   2.85263374011995     -0.00003372538612      0.00009578625861
  H   0.59010571293211     -2.14434052983329      0.00008352121107
  H   -1.87369057752430     -2.14116385482702      0.00007588851949
  Br  -3.92173594924385      0.00002522493859      0.00007967012199
  H   -1.87362651817816      2.14119837358778      0.00009844948983
