23
Coordinates from ORCA-job orca2
  C   0.42731329120529      1.09169122158565     -0.00004578476558
  C   -0.91257747482174      1.31816111652705     -0.00009955080676
  C   -1.82116231649872      0.22822461947089     -0.00007782628935
  C   -1.33296734202558     -1.09734748708070      0.00000676563171
  C   0.01608267655072     -1.30859356222314      0.00006157922009
  C   0.94673569435492     -0.23389297951278      0.00003284138068
  C   2.33098302482676     -0.54001345088556      0.00008340842224
  C   3.36473278459126      0.35443295748591      0.00004244206626
  C   4.78217892559259     -0.02146553108059      0.00009104415018
  H   5.28795441907158      0.41597611681127      0.86600516206118
  H   5.28793925378504      0.41573482801955     -0.86595652614774
  H   4.94154681094324     -1.09507086733310      0.00023146797410
  H   3.15024075143915      1.41705397540198     -0.00003909405611
  H   2.58818879637005     -1.59346008149477      0.00015765905719
  H   0.39216125920462     -2.32211193717783      0.00012657345325
  H   -2.00877588791321     -1.93759290584142      0.00003017316195
  O   -3.09589687805680      0.56127969871985     -0.00013955861381
  C   -4.12785270559530     -0.44787172451901     -0.00013266373118
  H   -4.05587678994953     -1.06053549285323      0.89522575601569
  H   -4.05576558855623     -1.06066874629155     -0.89539067762165
  H   -5.05994830197407      0.10131489174883     -0.00023019735652
  H   -1.31836386712622      2.31888362786809     -0.00015868099553
  H   1.09694676458219      1.93840311265461     -0.00006111221029
