20
Coordinates from ORCA-job orca1
  C   0.14355713046188      1.26014636322787     -0.23294555444571
  C   1.58453881724227      1.25521180876353      0.25702354324618
  C   2.32308177743655      0.00002291341035     -0.18153838333104
  C   1.58491198572137     -1.25535347909583      0.25712876685716
  C   0.14393756777328     -1.26081332667851     -0.23286058585850
  C   -0.60653384998049     -0.00044326166160      0.21032185048684
  C   -1.99050572155725     -0.00083685791702     -0.36620657069494
  O   -3.01984186034411      0.00169127910698      0.26829339695534
  H   -2.02118009604409      0.00228456823574     -1.48051600547969
  H   -0.70567326778102     -0.00043048646248      1.29761236613753
  H   -0.37816021071847     -2.14733102569958      0.13006193781726
  H   0.13350158214133     -1.31835709308683     -1.32562798143989
  H   2.09931436452067     -2.14710987458225     -0.10494927518490
  H   1.59282686508311     -1.31743779483936      1.34889695478560
  H   2.41854012228524     -0.00000817437185     -1.27166199788739
  H   3.33927068339881      0.00019164878103      0.21562744884800
  H   1.59244590982966      1.31739262285455      1.34878690664936
  H   2.09866758961907      2.14709403345789     -0.10513787283160
  H   0.13309555577930      1.31760476403052     -1.32571813642046
  H   -0.37881844486712      2.14652997252684      0.12990769179086
