14
Coordinates from ORCA-job orca1
  C   -0.41543686736107      1.28419758101119      0.00002196900879
  C   0.48967499657383      0.22391478882300      0.00001916660510
  C   0.01655660862444     -1.08983903608067      0.00001432746777
  C   -1.34346001156658     -1.33306858785274      0.00001162442654
  C   -2.24216936612194     -0.26983034666352      0.00001775723907
  C   -1.77882495411678      1.03877931642346      0.00002369172614
  H   -2.47965864599815      1.86262065342640      0.00002864947303
  H   -3.30667187456909     -0.46419581719812      0.00001590490911
  H   -1.71179640309779     -2.35011478399780      0.00000387987353
  H   0.73349753640175     -1.89932061362010      0.00000432583411
  C   1.93208630473639      0.50655259263396     -0.00002051941401
  O   2.81087222107037     -0.33207809245760     -0.00002604819639
  H   2.18618342514059      1.58812567705337     -0.00005392348534
  H   -0.04403736971597      2.30199736849918      0.00002209453253
