14
Coordinates from ORCA-job orca1
  C   0.68384362212455      1.36808982630396      0.00003621166371
  C   -0.69549703216596      1.26163862743812      0.00002932838303
  C   -1.26695749773646     -0.00251993489733      0.00006506408867
  C   -0.48573109519210     -1.15391151264988      0.00010637279939
  C   0.88856730192114     -1.03207149587521      0.00011102045295
  C   1.48744599167142      0.22937582710711      0.00007590411267
  C   2.94936555034487      0.37127853189782      0.00008894177910
  O   3.74023747924186     -0.55066064417955      0.00009797732134
  H   3.30738082615946      1.42251694117444      0.00005718050176
  H   1.52106138769260     -1.90886035584589      0.00014267010008
  H   -0.95873277141197     -2.12466039695616      0.00013350798825
  Cl  -3.00893851821301     -0.15379183763827      0.00005737004605
  H   -1.32347139067500      2.14002804598041     -0.00000358026766
  H   1.14390464623859      2.34842157814045      0.00000853103066
