18
Coordinates from ORCA-job orca2
  C   -0.70780185987406      1.45056803217856     -0.01369049323213
  C   -1.40925984137605      0.23560395485993      0.04811921750695
  C   -0.71238177811920     -0.99827213408595      0.03646780344096
  C   0.65206407956777     -1.02507368605084      0.03044980567147
  C   1.35905127037633      0.20129340419645     -0.00544761318884
  C   0.65980888990564      1.44433627151008     -0.02116603916703
  H   1.23829985282589      2.35624798898781     -0.02362069981386
  O   2.66702449424825      0.31314554612898     -0.01150780064445
  C   3.52907150204866     -0.85076780228447     -0.01293364451743
  H   4.53491827046613     -0.45396882531655     -0.02789863241622
  H   3.36463590289039     -1.43289221381042      0.89055293549287
  H   3.34266669080494     -1.44881244225965     -0.90115903429370
  H   1.17763161825816     -1.96609062470113      0.06097845175313
  H   -1.28193322200355     -1.91586198353479      0.05866630269997
  C   -2.88076950292190      0.23979867720872      0.01414100874819
  O   -3.50445654236911     -0.76242569308407     -0.27440173981905
  H   -3.39579125654122      1.19880435645171      0.17949790426500
  H   -1.24553246818707      2.38848427360562     -0.02674253248583
