25
Coordinates from ORCA-job orca1
  C   -3.23002786692332     -1.20379062181050     -0.43196420826007
  C   -4.60341603686823     -1.04610363809381     -0.34223565590009
  C   -5.13357196164906      0.15597073747700      0.10368116652700
  C   -4.28403973835205      1.19937354017784      0.46041654995938
  C   -2.91432034295220      1.04443729482589      0.37368908330319
  C   -2.36893596221686     -0.16309809740234     -0.07590355606278
  C   -0.93282354416812     -0.36387034757888     -0.17990608962697
  N   -0.07983613991313      0.54489551088310      0.10146668902376
  C   1.28553532319872      0.26542541265100      0.04943870632922
  C   2.14455646166846      1.26877788788954     -0.40865779426491
  C   3.50916994665524      1.05732307562128     -0.48458667860901
  C   4.02193270924908     -0.15479345115017     -0.05743831086475
  C   3.20731548639339     -1.15573157417491      0.43797271082488
  C   1.83981458506347     -0.94316103043198      0.48707055713828
  H   1.19859121301211     -1.70585378053971      0.90685486998884
  H   3.64482756499644     -2.07849507094167      0.79116083735280
  F   5.35951829778516     -0.35835813942694     -0.10657398316961
  H   4.17705654839627      1.82307683073369     -0.85160264896908
  H   1.71753196225217      2.21083937778379     -0.72201295765954
  H   -0.61927031603309     -1.35354764384658     -0.53679705249852
  H   -2.24320488975742      1.84559799749153      0.64799112189430
  H   -4.69840743316750      2.13623336787143      0.80864666128320
  H   -6.20581501915722      0.28183654068887      0.17511733860131
  H   -5.26017212839307     -1.85908975181198     -0.62094006631806
  H   -2.81475371911923     -2.14139322688546     -0.78153389002276
