29
Coordinates from ORCA-job orca1
  C   -3.11936770134315     -1.14928833319376     -0.71631241864403
  C   -4.49277881855754     -1.24206022367738     -0.55972621689869
  C   -5.16869592030059     -0.29117974113773      0.19109638657334
  C   -4.46457421825576      0.75229557142744      0.78533512934928
  C   -3.09503407605402      0.84605701444673      0.63245425105385
  C   -2.40348545903761     -0.10671572543383     -0.12345316132237
  C   -0.96184982820999     -0.04173720567893     -0.30514204688825
  N   -0.23950229311876      0.88958630426454      0.18655146353317
  C   1.14759047052722      0.86068429285309      0.03495099791973
  C   1.80825145690038      2.06735105805295     -0.18791300802554
  C   3.18522049727227      2.07464002772148     -0.34835560534409
  C   3.92127884160222      0.90832752321203     -0.24697859946181
  C   3.26855273451696     -0.29840622182374      0.00916434141097
  O   4.07298527185870     -1.39390910826068      0.11627873353594
  C   3.46332038548139     -2.64533983463336      0.37913124373347
  H   4.27070598681870     -3.36969301615551      0.41554315980063
  H   2.93911253450099     -2.64653249350189      1.33735230472220
  H   2.76500795001176     -2.92701102634259     -0.41224394665176
  C   1.88582956508662     -0.32590257597170      0.14579285646671
  H   1.36562726768690     -1.24078895847925      0.38205521448595
  H   4.99742466971849      0.90846652202687     -0.34479029855754
  H   3.69703980554698      3.00874540852907     -0.53771681663977
  H   1.22837554852484      2.97658223279252     -0.25147723372952
  H   -0.52563302333979     -0.84420699054416     -0.91441544014112
  H   -2.53553269573741      1.65058946167838      1.08777426557773
  H   -4.99257510079850      1.49386223529025      1.37016382345505
  H   -6.24133137109387     -0.36073592315046      0.31494125348607
  H   -5.03599096181882     -2.05400563626942     -1.02433874795343
  H   -2.59063321838863     -1.88992943804098     -1.30414818484619
