17
Coordinates from ORCA-job orca1
  C   -0.46378841032797      1.18949916172329     -0.00040369661728
  C   0.92079931219537      1.20778840466239      0.00003406487395
  C   1.60989516286539      0.00499073298597      0.00029839683123
  C   0.93677331522789     -1.20984832834697      0.00012769146121
  C   -0.44383512098348     -1.21113327417165     -0.00032199266207
  C   -1.16658695362333     -0.01624792429724     -0.00063740451019
  C   -2.65481853970769     -0.08211941907723     -0.00118234974023
  O   -3.22990629000473     -1.15924844148377      0.00012258025202
  C   -3.43647206693710      1.20634661315842     -0.00006715942521
  H   -3.20056327168353      1.80864312061860      0.87731109737520
  H   -3.20184191944244      1.80933512747155     -0.87729653591536
  H   -4.49602238696422      0.97633993347330      0.00062131131034
  H   -0.99191057972155     -2.14223166549928     -0.00047743485065
  H   1.49268104946300     -2.13566968923811      0.00034583685813
  Cl  3.36010581888657      0.01801040973710      0.00088785059301
  H   1.46252063355710      2.14180701511605      0.00018584460971
  H   -0.98999795279930      2.13299882316757     -0.00058860044381
