17
Coordinates from ORCA-job geo
  C   1.27261175968945      1.18725759697656      0.00053333480470
  C   -0.11257943673870      1.20255962604130      0.00068391215513
  C   -0.79835954720747     -0.00223142196912      0.00014658069142
  C   -0.12266495818332     -1.21576598961857     -0.00049863745904
  C   1.25850927306998     -1.21338842106824     -0.00057369159007
  C   1.97806827068870     -0.01677575872828     -0.00003388682047
  C   3.46678944322913     -0.07894227258073      0.00002626025786
  O   4.04402967980564     -1.15477561883826     -0.00132635477242
  C   4.24529887663447      1.21114939591267     -0.00148759211027
  H   4.01016995206324      1.81325205118365      0.87622970463231
  H   4.00706821017017      1.81347457374935     -0.87820820075335
  H   5.30539308406824      0.98359847068176     -0.00332582810893
  H   1.80869923406549     -2.14332202789794     -0.00100437388896
  H   -0.67250993563317     -2.14521254433058     -0.00092483862599
  Br  -2.70214199445647      0.00722356153688      0.00026318685718
  H   -0.65263970064068      2.13756943698873      0.00118650855790
  H   1.79643528937530      2.13213364196081      0.00094721617302
