12
Coordinates from ORCA-job orca2
  C   -1.66930216073458     -0.77595534178749      0.07877186288105
  N   -0.45843403876251     -0.00623357163841      0.06141212999043
  C   0.80392510402539     -0.66219068556546     -0.09996222200370
  O   1.80895147942377     -0.01941825436860     -0.24093185732947
  H   0.73535954924165     -1.75431566980482     -0.10656066525055
  C   -0.50383978458034      1.42904771481756      0.04082945987160
  H   -1.36079637844278      1.77749944527678      0.60939939782153
  H   -0.62798415817218      1.77108671813024     -0.99532955982462
  H   0.43891086228396      1.83201770797955      0.39931801509545
  H   -2.26295929834833     -0.48414999217470      0.94932648094895
  H   -2.27674705688917     -0.53693717017911     -0.80064221294553
  H   -1.45696081904488     -1.83837610068554      0.10440427074485
