16
Coordinates from ORCA-job orca2
  C   -1.15953607871731      1.21240488146432      0.31282157953637
  C   0.28220512387174      1.33091526211703     -0.16025490237168
  C   1.03091764088916      0.04352113212440      0.02053852119688
  O   2.21987803479187     -0.02655749967856      0.32621929400541
  N   0.35231710947531     -1.14686717615205     -0.09181858144741
  H   0.92305117968868     -1.97279472160823      0.07074316303750
  C   -1.07715878060639     -1.27332461932594      0.08263731428151
  C   -1.82921191166364     -0.01849483031748     -0.28103276884752
  H   -1.87985614535151      0.07434716870654     -1.36663932207303
  H   -2.85199256644381     -0.11345861449311      0.07484346072541
  H   -1.37800846982392     -2.12980575160298     -0.53516977354393
  H   -1.27427345837779     -1.60365345701670      1.11310152958384
  H   0.32715771830008      1.53417321066549     -1.23610662994504
  H   0.83788101048000      2.11875180506183      0.33921732531782
  H   -1.18881495505415      1.18127558310628      1.40177569622771
  H   -1.69695995145830      2.10837862694917      0.00759039431619
