13
Coordinates from ORCA-job orca1
  C   0.14943939624528     -1.21065073994232      0.00002417625264
  C   1.53294821228643     -1.20361882515145     -0.00003611453664
  C   2.22579506189285     -0.00014679100110     -0.00006671504977
  C   1.53314850067250      1.20344298593764     -0.00003709262645
  C   0.14964217147881      1.21071009148300      0.00002335865131
  C   -0.54988515013534      0.00008966812373      0.00005012450196
  C   -1.96989592189020      0.00017630830151      0.00009405519160
  N   -3.12988997534932      0.00013105609714      0.00002359208769
  H   -0.39776298066772      2.14201150960360      0.00004733158456
  H   2.07364030074246      2.13987628465591     -0.00006046895335
  H   3.30735592223396     -0.00022725943737     -0.00011435607223
  H   2.07326951562739     -2.14015045375125     -0.00005798745831
  H   -0.39812695313710     -2.14185723491905      0.00004809642698
