18
Coordinates from ORCA-job orca1
  C   1.08068931195970      1.20611508002021      0.00010213933447
  C   2.45198655080540      1.02058222442376      0.00012674440698
  C   2.98046216878292     -0.26402505553119     -0.00001887389282
  C   2.13175466399396     -1.36296378302869     -0.00018956179667
  C   0.75845446725476     -1.18195236726299     -0.00021049051711
  C   0.22337840016639      0.10630386062393     -0.00006542646898
  C   -1.23605749263938      0.36389345169514     -0.00007855044126
  O   -1.74040050044220      1.46789020771146     -0.00001096192177
  O   -1.96128465655433     -0.77883822024300     -0.00007146631325
  C   -3.38458472024810     -0.60022231328199     -0.00011368970505
  H   -3.80365721757406     -1.60038036570811     -0.00072440520693
  H   -3.70439129438126     -0.05373998934316     -0.88410394466150
  H   -3.70452967196150     -0.05479726375466      0.88448709592005
  H   0.09683690948678     -2.03477982760685     -0.00034205784347
  H   2.54188628895567     -2.36385119549802     -0.00030629984888
  H   4.05290775450548     -0.40875174734601      0.00000166862695
  H   3.11136654177002      1.87809298605153      0.00026053292899
  H   0.65169479611975      2.19750531807864      0.00021234740024
