12
Coordinates from ORCA-job orca2
  C   -1.20913320396719      0.65763860696266      0.00001814015415
  C   -0.00531247408819      1.41588333520830      0.00002085683996
  C   1.19317566270072      0.76394345822126      0.00000819542026
  C   1.20913314159696     -0.65762736760872      0.00000155006975
  C   0.00531145819524     -1.41587220142840     -0.00000096182493
  C   -1.19317616517207     -0.76393161104722      0.00001137564256
  H   -2.12717371044829     -1.30619758800171      0.00001141262085
  H   0.05737309945852     -2.49469432263621     -0.00000818137005
  H   2.15886051198542     -1.17538758012419     -0.00000182743006
  H   2.12717403524272      1.30620982733864      0.00000780394184
  H   -0.05737399464513      2.49470463110432      0.00002846230251
  H   -2.15885946085870      1.17539791201125      0.00002147363317
