15
Coordinates from ORCA-job orca1
  C   -0.53958259305231      1.20871623611416      0.00008038199644
  C   -1.92276205000610      1.18498225539857      0.00009361259259
  C   -2.59763517078002     -0.02939149303904      0.00003904681201
  C   -1.88456236348000     -1.22069004109008     -0.00002535639211
  C   -0.49964657047355     -1.20248860855666     -0.00003514845552
  C   0.18167896461867      0.01503096432753      0.00001737238810
  C   1.65796842071867      0.09419239504092      0.00001937539934
  O   2.29989848561452      1.12390952506554      0.00000122439597
  O   2.25747405508862     -1.12547503141813     -0.00002743885297
  H   3.21010337763223     -0.94535080779434     -0.00004845116924
  H   0.05676982233350     -2.12740604496002     -0.00008307689421
  H   -2.40968371489848     -2.16620590392111     -0.00006855810142
  H   -3.67957134312372     -0.04712598086866      0.00004675235639
  H   -2.47751176690320      2.11337428530821      0.00014588517570
  H   0.00257564671117      2.14309585039312      0.00012207874894
