24
Coordinates from ORCA-job orca1
  C   0.96564235405404      1.26727117154344     -0.05102454818943
  C   2.34010957402807      1.09084971954480     -0.17491163197202
  C   2.95312704711678     -0.14883233212287     -0.07108483166801
  C   2.14715488587376     -1.25974828424535      0.13618358172653
  C   0.76854188828357     -1.17023893712918      0.27877861565699
  C   0.20173070683959      0.11708768732339      0.21819977107968
  S   -1.57333805909927      0.26909744520197      0.46933181352887
  O   -1.99232576992772      1.66059073955413      0.63767812386009
  O   -2.06485287570349     -0.76149838863481      1.38531790248144
  Cl  -2.28922549843718     -0.29830446742079     -1.50008009426590
  C   0.00169208128433     -2.44463943649826      0.45955748460235
  H   -0.85799595144634     -2.50589090907850     -0.20204147502248
  H   -0.37733903070031     -2.54191781726469      1.47312627376735
  H   0.65122422571850     -3.29086008294340      0.25351870250994
  H   2.60135621806758     -2.24131251226637      0.18092991913332
  C   4.43780149223193     -0.28624935592352     -0.17742557406710
  H   4.72076328118605     -1.23196525376646     -0.63505057054943
  H   4.89752486846739     -0.25761608006354      0.81200490915608
  H   4.87537344662955      0.52083933754678     -0.76051676354197
  H   2.94845695500494      1.96376053366002     -0.37346877976642
  C   0.42825123760688      2.65394466481686     -0.23593736199522
  H   1.23040712846528      3.31214007824421     -0.55801304806124
  H   0.00752063787647      3.05273471309219      0.68288450685181
  H   -0.36356074342039      2.68867486682997     -0.97880622525522
