15
Coordinates from ORCA-job orca1
  C   -1.41070528463135      1.41701692473491     -0.00001149144416
  C   -0.23339293304527      0.69324441868550     -0.00007991482563
  C   -0.23339033954819     -0.69324446784976     -0.00010119207813
  C   -1.41070122492704     -1.41701788464481     -0.00005759963873
  C   -2.60049261088891     -0.69754025314688     -0.00001208688819
  C   -2.60049502246946      0.69753729720429      0.00001075844483
  H   -3.54338416537709      1.22667877878475      0.00005292147022
  H   -3.54338031049826     -1.22668439926178      0.00001408944614
  H   -1.40058710880375     -2.49760561913488     -0.00006772621917
  C   1.16728014610752     -1.14903404893633     -0.00015587977168
  O   1.63270874652469     -2.25089349064270      0.00012164095302
  O   1.97364323191716     -0.00000105900932      0.00010915965749
  C   1.16727218462219      1.14904112652338     -0.00012785099742
  O   1.63270811719500      2.25089533089405      0.00019653549012
  H   -1.40058882617724      2.49760464579956      0.00001093640128
