9
Coordinates from ORCA-job orca1
  C   0.66482751851619      1.29034522465059     -0.00005677843780
  C   -0.66478710772252      1.29036133998426     -0.00008082249392
  C   -1.13139488601067     -0.11398502177635     -0.00032349307618
  O   -2.24285823878163     -0.55420569652672      0.00016783236583
  O   -0.00000887239683     -0.93279362754600      0.00009757465080
  C   1.13140099908934     -0.11401195877266     -0.00026041884203
  O   2.24285136728698     -0.55426407669970      0.00025301323380
  H   -1.35265972613149      2.11985415512003      0.00006271050950
  H   1.35272144615064      2.11982046156656      0.00011228209001
