17
Coordinates from ORCA-job orca1
  C   0.13587639569019     -1.92270609954702     -0.28644559002595
  C   1.29314584266973     -2.68623198618772     -0.26570260193391
  C   2.52342624286442     -2.08373554653605     -0.05422311564334
  C   2.60231488371082     -0.71167200920125      0.11436264258035
  C   1.45079743574510      0.05369496847572      0.05963695139661
  C   0.20996953840871     -0.55108939841154     -0.11351695976468
  S   -1.32026766644760      0.43258288139136     -0.11642479185811
  O   -1.20041692718283      1.52910288854099      0.83872002704728
  O   -1.79538644215079      0.58793381228600     -1.48743631292543
  Cl  -2.67845646103364     -0.95894654672972      0.81710738252873
  N   1.62711018121897      1.52057676092683      0.09537939346413
  O   2.36843341822132      1.97137503215906      0.95661075972823
  O   1.05923990626620      2.15565699617489     -0.78310263346283
  H   3.54853586233211     -0.21683684772608      0.27303799046797
  H   3.42543087741858     -2.67804621348665     -0.02425994141294
  H   1.22448451727580     -3.75567409727303     -0.40367255994003
  H   -0.82520590500710     -2.39640109485580     -0.40904644024608
