12
Coordinates from ORCA-job orca1
  C   -6.08203713893334      2.43745443842855     -0.02721577354856
  C   -6.02664862515827      0.91247554566845      0.00457206910311
  C   -4.56010834766729      0.53898766591101      0.00924756828042
  H   -6.49662338364846      0.44297092079246     -0.85656125958490
  H   -6.48727304257476      0.48392390384259      0.89209495426086
  C   -4.64661992260386      2.91696215021832     -0.01326208413257
  H   -6.59575287028644      2.87124005617228      0.82761928534936
  H   -6.56106311858869      2.83194396860750     -0.92075337330041
  N   -3.85971786297937      1.75507890030397      0.00276198441729
  Cl  -2.15115303562942      1.81717591674134      0.01364969100564
  O   -4.23166152731172      4.04584468496035     -0.01727136262321
  O   -4.06408112461839     -0.55665825164681      0.01906830077297
