26
Coordinates from ORCA-job orca2
  C   1.55533317104152     -1.22401350256272     -0.17821860732667
  C   2.92758461481289     -1.20966608531784     -0.17230449104715
  C   3.61248018461610     -0.00850590137663      0.01902040881954
  C   2.90554973570183      1.18765743341445      0.18915415523346
  C   1.53394910058956      1.18575312578065      0.16115570608427
  C   0.80994117571627     -0.02206546037101     -0.01344305108340
  C   -0.62482590563665     -0.00535568021943     -0.02495810905729
  C   -1.34620519977624     -1.17830943037251      0.16022664637869
  C   -2.80614193176622     -1.25301893538844      0.23525522021504
  C   -3.51863691852393      0.08621761144840      0.30437076024536
  C   -2.82699208278292      1.09124876977077     -0.59563959489168
  C   -1.37403002392066      1.28244403442837     -0.18065161615146
  H   -0.85724833986511      1.92529505557450     -0.89073090731046
  H   -1.34154009962565      1.81083148860414      0.77913411013961
  H   -3.33425744119842      2.05295249467120     -0.56377169896730
  H   -2.86801996126661      0.75280202764088     -1.63261791563907
  H   -4.56254434369149     -0.03559269249673      0.02554689407761
  H   -3.51216035558667      0.44629127825212      1.33449697185405
  H   -3.12255433166565     -1.81388079516479     -0.66113249416483
  H   -3.08754771488584     -1.92977681519913      1.04861080473412
  H   -0.81711207991338     -2.11435365807231      0.27461158659349
  H   1.00382316556937      2.11431241674144      0.30273223387241
  H   3.44239042414669      2.11238645567375      0.34241027525146
  H   4.69334123941013     -0.00103924000143      0.03441073633939
  H   3.47802979015891     -2.12735391527221     -0.31865716655736
  H   1.05105642834217     -2.16100418018549     -0.35439465764183
