26
Coordinates from ORCA-job orca2
  C   0.39295379338499     -0.55597863936395     -0.01924827801770
  C   1.46416294228647     -1.40763890395130      0.30689813271075
  C   2.75539192456974     -0.94567042608625      0.31464559304550
  C   3.03719774736391      0.39585395531004     -0.00713562382360
  C   2.01620871903415      1.26629678733686     -0.29203245935122
  C   0.67542491172886      0.84886489010884     -0.22495891013568
  C   -0.33733878215688      1.85221265125325     -0.28778655402022
  C   -1.56125422226874      1.80987752875856      0.30306391232717
  C   -2.55771604922181      2.88847450253589      0.22916136991322
  H   -3.50839712016797      2.50170903678980     -0.14801492301815
  H   -2.78346669395372      3.26529598299409      1.23031052532464
  H   -2.24346458045950      3.71613517070610     -0.39921020198906
  H   -1.81378186669240      0.95818788516687      0.92481942114125
  H   -0.04701311156750      2.78409864583502     -0.76195370127737
  H   2.23122646301239      2.30491680156791     -0.49998378441991
  H   4.06109813644500      0.74122511051898     -0.01215944460713
  H   3.56822932699797     -1.62534637678810      0.52712456145294
  H   1.28227910437226     -2.46050406201234      0.46110918209156
  C   -0.91253681738559     -1.07228831093484     -0.28778344023751
  C   -1.40923004598625     -2.26133627849574      0.15448647968306
  C   -2.74365244016193     -2.77737210443197     -0.17553227468129
  H   -3.30563673539622     -2.12093408414798     -0.83315975202866
  H   -2.65698984934123     -3.76055434672934     -0.64756267358250
  H   -3.32305461121593     -2.95572897008399      0.73437575143946
  H   -0.80626332768929     -2.87598363081046      0.81403903255060
  H   -1.54863471553078     -0.47440621504594     -0.92720934049017
