26
Coordinates from ORCA-job orca2
  C   -0.15373699143441      0.11363992467859     -0.15660274602369
  C   -1.45207871759717     -0.37861927076017     -0.20837348138412
  C   -1.64985711994789     -1.78825590173086     -0.09984838947373
  C   -0.59116090575011     -2.64766689610169      0.12745248579906
  C   0.68594721584523     -2.13519919181439      0.20705138481445
  C   0.93518805244129     -0.73882683906604      0.04297961423627
  C   2.30353895548436     -0.31292373774264      0.07843427409576
  H   3.03386483326869     -1.08989792824565      0.27319371477841
  C   2.77221278664304      0.94713191311958     -0.11753085628715
  H   2.07393676627968      1.74944562662886     -0.33099752387988
  C   4.19135183608785      1.32148415301416     -0.07113196398159
  H   4.84646818555591      0.48464293842133      0.15051686113940
  H   4.35270340942554      2.10703213651253      0.67257423200502
  H   4.49581524210691      1.76916720806412     -1.02171167717009
  H   1.52372252815783     -2.79777316116674      0.37679153862635
  H   -0.76193578533366     -3.70918197292844      0.22825690454641
  H   -2.65498842488337     -2.18009896610641     -0.17619446153524
  C   -2.62933413440171      0.43080857074887     -0.38203814697092
  C   -2.82719658581332      1.73073656246244     -0.04503782630891
  C   -1.92639285270606      2.64807445309759      0.67952348357466
  H   -1.40314693764594      3.30359123930579     -0.02529209415300
  H   -1.17934996065202      2.13682329238850      1.27988499660245
  H   -2.50239799037889      3.31140686896026      1.32189519808405
  H   -3.79792317646128      2.13794804184793     -0.30439145527119
  H   -3.48500708648886     -0.09210557816207     -0.79319424464258
  H   0.01490675819834      1.16498521457454     -0.31762572122018
