17
Coordinates from ORCA-job orca2
  C   -0.22857861677684      0.70745949301693     -0.00000056954529
  C   0.98699115326308      1.43167123776399      0.00000034542486
  C   2.15871549941805      0.72169851205814      0.00000116015710
  C   2.13810267788875     -0.68887228558149      0.00000118133988
  C   0.93803385761588     -1.42086991557963      0.00000039255520
  C   -0.23916316643246     -0.72730815569629     -0.00000042635900
  C   -1.66357547043242     -1.19118466393194     -0.00000132738726
  C   -2.41918217665938      0.08649661728688     -0.00000251699671
  C   -1.56005584162037      1.16975297517668     -0.00000189614497
  H   -1.86195363062059      2.20634651628998     -0.00000241206672
  H   -3.49744169607438      0.14804180323350     -0.00000354890613
  H   -1.91472936860275     -1.80495971415014     -0.86975098587817
  H   -1.91473047746530     -1.80495791422450      0.86974933414325
  H   0.96454693696085     -2.50137114145500      0.00000043724320
  H   3.07773341042657     -1.22357746218002      0.00000180289637
  H   3.10944307868078      1.23396049147778      0.00000181789370
  H   0.98279683043053      2.51214990649513      0.00000031163069
