22
Coordinates from ORCA-job orca2
  C   -0.92001422945488     -1.00834592437885      0.01913699350126
  C   -2.25630244875922     -0.65980507626841     -0.00167246393899
  C   -2.65916932453566      0.67030185693566     -0.06919600400639
  C   -1.71384099503728      1.70859202144104     -0.11946597706697
  C   -0.38406516789398      1.40571190744113     -0.09975409540713
  C   0.06110485062324      0.05344965596484     -0.02862243130326
  C   1.43748232276203     -0.27326133107373     -0.00194883596085
  C   2.49263152603246      0.60860975397038     -0.02753432824580
  C   3.89700236096656      0.20349188208246      0.00293101021262
  H   4.40380226053918      0.67287023563938      0.85266608072441
  H   4.03913215555531     -0.87125101457392      0.04853171473213
  H   4.42010750010140      0.60136398365394     -0.87306868776150
  H   2.30296918165017      1.67439226168840     -0.07196342124062
  H   1.69632549465001     -1.32214685081632      0.04574948459258
  H   0.33626136865897      2.20790883851734     -0.14034959897250
  H   -2.04197730451734      2.73614208829318     -0.17349581234365
  H   -3.71399747636466      0.90704622142009     -0.08375661818129
  H   -3.00683273751041     -1.43628036896665      0.03492166263951
  C   -0.52756716984387     -2.44278510033089      0.09067596817722
  H   -1.40439102058413     -3.08062072444068      0.11916325746911
  H   0.06296266243020     -2.65709746906949      0.98160215708700
  H   0.06864439053188     -2.74334874712892     -0.77118965470689
