19
Coordinates from ORCA-job orca2
  C   -0.44410537132157     -1.01547507232608      0.00000502634151
  C   0.91294940142335     -1.16401280768635     -0.00000642645985
  C   1.73272071278235     -0.02024898553154     -0.00004797023605
  C   1.18016141361869      1.27166419128551     -0.00008207862852
  C   -0.17954533093587      1.41041787993305     -0.00007287315661
  C   -1.03909901902376      0.27781503048156     -0.00002171422997
  C   -2.43911936581471      0.49669781555154     -0.00000010035866
  C   -3.41703321279055     -0.46520229962970      0.00008524531163
  C   -4.85144098994398     -0.18055506126963      0.00009922489064
  H   -5.32704370365880     -0.65626917597545     -0.86388121683898
  H   -5.08506219066664      0.87898718764710      0.00004084708895
  H   -5.32701087339883     -0.65616920375193      0.86415220675860
  H   -3.13554802811970     -1.51202127012715      0.00015107909879
  H   -2.76284335764384      1.53134603786617     -0.00004814090908
  H   -0.61363260625868      2.40012614558106     -0.00009941843220
  H   1.83031899705025      2.13337897776423     -0.00011696232227
  Cl  3.42887456368160     -0.20745609808227     -0.00005785852785
  H   1.36570790649906     -2.14383949135290      0.00001267629521
  H   -1.06161344547836     -1.90070220037720      0.00003115431471
