19
Coordinates from ORCA-job orca2
  C   0.49834868232533     -1.10958081043584     -0.00028073091329
  C   1.84852877259016     -1.33278199810948     -0.00039364403446
  C   2.73935543099516     -0.24966744876801     -0.00014037603109
  C   2.26562094263992      1.06883732687486      0.00023954424889
  C   0.91615569118180      1.30409274163387      0.00036200068268
  C   -0.01040215674648      0.22273206350111      0.00009059985208
  C   -1.39077158208132      0.52970008065682      0.00020223738700
  C   -2.43207740251982     -0.37149192307827     -0.00009855731747
  C   -3.84245231051755      0.00615562041915      0.00002360816742
  H   -4.00812010955005      1.07821250022424      0.00061529540933
  H   -4.34843125378708     -0.44150266469306      0.86247774068164
  H   -4.34825388487039     -0.44046659893470     -0.86308406432914
  H   -2.21579941046918     -1.43341547711733     -0.00048145502855
  H   -1.65148253745756      1.58218018691266      0.00054477398925
  H   0.53915605835861      2.31717107224638      0.00065690434145
  H   2.96428961984936      1.89251218843664      0.00043758685060
  H   3.80445242839569     -0.43507567790818     -0.00023572256982
  H   2.23279868669865     -2.34213451698095     -0.00067190428839
  H   -0.17666076503527     -1.95203546487990     -0.00046393709812
