19
Coordinates from ORCA-job orca2
  C   -1.27437943471847     -0.98848116385890      0.00001254472924
  C   0.08625663354336     -1.11147583712744      0.00004538584861
  C   0.88425981744078      0.04713394036020      0.00009415054579
  Br  2.73402011274359     -0.12047148348032      0.00013731964396
  C   0.30626522089349      1.32747505989024      0.00011085103113
  C   -1.05698951241515      1.43960489149935      0.00007773176904
  C   -1.89396553380339      0.29175175889630      0.00002667967398
  C   -3.29993003177773      0.48320243364189     -0.00000839560122
  C   -4.25712777594913     -0.49650171398428     -0.00005767621881
  C   -5.69793810883963     -0.24146082963538     -0.00014103900950
  H   -6.16389632201705     -0.72576476113549      0.86407065857106
  H   -6.16365106613849     -0.72528798443994     -0.86476488261017
  H   -5.95250650113875      0.81333185825229      0.00007639297300
  H   -3.95541615039839     -1.53779129740676     -0.00006012556250
  H   -3.64287652868974      1.51160429090353      0.00000659138372
  H   -1.50979967740931      2.42099230976464      0.00009078819800
  H   0.93487012321467      2.20505132847682      0.00014973363042
  H   0.55251591139707     -2.08499244247902      0.00003425550627
  H   -1.87470037593773     -1.88544525813771     -0.00002476450203
