16
Coordinates from ORCA-job orca2
  C   -0.77816153775762      0.01190048044816     -0.03146723745935
  C   0.04603088229609      1.14651175588305      0.04415550791636
  C   1.45576560574573      0.78961898464429      0.01976994914018
  C   1.51043582504028     -0.73914796015561      0.08353063090194
  C   0.06498438711999     -1.18958742044812     -0.13843641714716
  H   -0.08687167836178     -1.61885569264589     -1.14172356037618
  H   -0.28109690883407     -1.99047526414602      0.52298729708303
  H   2.19613117361241     -1.16177257097258     -0.64410186643922
  H   1.86068852465863     -1.06056137759728      1.06326344360278
  H   2.02565639786423      1.31426102102366      0.79736163651976
  H   1.90795153086926      1.19759008616657     -0.90200227206215
  H   -0.32794785204185      2.16067603056372      0.10014288018131
  C   -2.23774402688231      0.01520897676318      0.00719621734677
  H   -2.55289388751692     -0.10800693414940      1.05358822152675
  H   -2.66791575938133     -0.82737100402341     -0.52980471361945
  H   -2.66882557643073      0.95343938864569     -0.33254171711537
