19
Coordinates from ORCA-job orca2
  C   0.10300963968173      0.44710394811919     -0.00023341312073
  C   1.43979676181923      0.14026605770249     -0.00042991168904
  C   1.87922105718953     -1.20385478589523     -0.00030548162305
  C   0.95033102852026     -2.23918291548490      0.00006334742991
  C   -0.39217375603838     -1.94811415970281      0.00029947203040
  C   -0.84975995320975     -0.59346898764363      0.00009343623774
  C   -2.25371545634996     -0.37767947179679      0.00021023578845
  C   -2.89450785622483      0.83601931775648     -0.00040316425277
  C   -4.34597030486805      0.99954223126283     -0.00020587451667
  H   -4.89079025276988      0.06134109314449      0.00053884023979
  H   -4.65360099736928      1.60019141610079      0.86258915654812
  H   -4.65399736529845      1.59906204940075     -0.86364367573950
  H   -2.30694720530436      1.74721705804820     -0.00112105652931
  H   -2.87531918266688     -1.26576964153688      0.00075750538629
  H   -1.12115682886487     -2.74616187705074      0.00060828179643
  H   1.29079820131923     -3.26379512271580      0.00018150455565
  H   2.93910201613680     -1.41268654764746     -0.00048483031475
  Cl  2.62918255690774      1.38682887536649     -0.00080897901576
  H   -0.19743920260983      1.48284836257249     -0.00027919321117
