19
Coordinates from ORCA-job orca2
  C   -0.93139579686508      0.54475649549084     -0.07661385547860
  C   -2.24527991028327      0.12023020693614     -0.05991599511324
  C   -2.52516726522334     -1.23346982432018      0.02784936393217
  C   -1.48981194225618     -2.18385036911088      0.10124318503340
  C   -0.18781675568225     -1.77625624717858      0.08515436457968
  C   0.15779426350761     -0.39955635393195     -0.00468887261347
  C   1.49811105893336      0.05084735256880     -0.02453601741963
  C   2.62411677365753     -0.73645354124628      0.02514946116865
  C   3.98686880133142     -0.21131926963775      0.00038785186438
  H   4.53454906546102     -0.55331875128588      0.88530413554409
  H   4.54006380808756     -0.64867841703755     -0.83789649626505
  H   4.03827024835264      0.87073877914263     -0.05917682398449
  H   2.52823634783839     -1.81438777974228      0.08490233961647
  H   1.65319175485184      1.11921070746214     -0.08740207740740
  H   0.59514240946108     -2.51571358532339      0.14410087671094
  H   -1.73061153159083     -3.23433521811126      0.17057106700803
  H   -3.55528222906975     -1.56031853590032      0.04022716916347
  H   -3.04350667533805      0.84439935535472     -0.11590993348338
  Cl  -0.62668882517371      2.23474359587102     -0.18740034285601
