19
Coordinates from ORCA-job orca2
  C   0.28825696296694     -1.21235379667367     -0.10131408016615
  C   1.02928324829202     -0.02083544266070      0.02637099623211
  C   2.49428258166465     -0.05789115077642      0.03658500679823
  H   2.92613759036261      0.77119702961390      0.59297653168255
  H   2.83937875019537      0.07337658386227     -1.00049073810406
  H   2.90144253879805     -1.00670949724225      0.37650771888373
  C   0.31976519108452      1.25966252240724      0.14321912928660
  C   -1.13989808017168      1.23282669803918     -0.28888970591230
  C   -1.85611448209830      0.03674199972647      0.31358673672422
  C   -1.16346196667963     -1.25837670815811     -0.07790070344177
  H   -1.45690271673429     -1.56667250602998     -1.10245109489933
  H   -1.49242856474381     -2.12817106866338      0.50394344259730
  H   -1.86923059544137      0.11833435751721      1.40197522536813
  H   -2.89489566768131      0.00690168017455     -0.00430723467799
  H   -1.19189041822557      1.19435077565609     -1.37819787011976
  H   -1.62085387599353      2.16021627519297      0.01058579802332
  H   0.38704396334256      1.52254626266509      1.21510178815529
  H   0.89965946015542      2.05114648866216     -0.33827672764244
  H   0.83352548090735     -2.13882520331264     -0.24620891878770
