19
Coordinates from ORCA-job orca2
  C   1.56587701697566     -1.24509171531207      0.28465235185407
  C   1.30474571167743      0.07849269076499     -0.01394577075306
  C   0.00513328180911      0.63637051667789      0.02101108724209
  C   -1.24801377133105      0.02866590678229     -0.04318633668672
  C   -1.49505370333300     -1.38931464563964     -0.37337604263234
  H   -2.45694810880644     -1.50464752594111     -0.86833162615249
  H   -1.58059323709099     -1.96414499889356      0.55636493694053
  H   -0.72327070707933     -1.84328060664552     -0.98415530532418
  C   -2.43895614370758      0.86928012219481      0.17668933316740
  H   -2.22212126652611      1.82893920870239      0.63339013752627
  H   -3.18920161299991      0.33632729553221      0.76202100698138
  H   -2.92133669501955      1.05531064459349     -0.79117480239423
  H   -0.01863127385598      1.71969208310305      0.07262993291634
  C   2.43928986977921      1.01236697021270     -0.28045487998527
  H   2.28137162901047      1.55694158921837     -1.21103843244174
  H   2.50949023306862      1.76195565878075      0.50949254072177
  H   3.39079665178464      0.49570723400153     -0.33634839391927
  H   0.80525083275528     -1.93543278958892      0.60804716044288
  H   2.57847179288953     -1.62021643854365      0.25967870249658
