16
Coordinates from ORCA-job orca2
  C   0.69474681093909      1.25912247737191      0.07749011348265
  C   -0.69513041581529      1.25890298498274     -0.07751708457256
  C   -1.46512210272253      0.02880563844684     -0.05966717141093
  C   -0.69022941970812     -1.22070268050974      0.31984156797208
  C   0.69061558214709     -1.22049956245795     -0.31977126176276
  C   1.46512110653803      0.02926389797728      0.05968708724985
  H   2.38412251245897      0.17496162688286     -0.52282351437820
  H   1.88846032438905     -0.04501406196934      1.08523740700301
  H   1.25098607899791     -2.10312934177856     -0.02323612535536
  H   0.60204799101556     -1.26640167291017     -1.40658757461570
  H   -1.25032367687573     -2.10351803585900      0.02333778593177
  H   -0.60164831032451     -1.26653465024779      1.40665953309606
  H   -2.38417101347159      0.17424109673504      0.52283432722514
  H   -1.88843559743505     -0.04564420995155     -1.08521562547194
  H   -1.20640601477808      2.20173056026338     -0.23796170850016
  H   1.20572784464519      2.20211593302406      0.23789814410705
