18
Coordinates from ORCA-job orca2
  C   -1.26298661550863      1.30726407682654      0.02327546732819
  C   -0.91355503734948     -0.04488146971070      0.16537020771648
  C   -1.71400360500286     -1.07736306896460     -0.50187492512360
  H   -2.56113858345613     -1.31207534144373      0.16187510029264
  H   -1.17273802373057     -2.00943381332433     -0.63715413538157
  H   -2.15812815929957     -0.74326307772927     -1.43705115980061
  C   0.24276029599309     -0.41048168434753      0.96097851709672
  C   1.52399456468128     -0.55909183965620      0.00640846725011
  C   2.00367681025998      0.72964026662833     -0.60680279958437
  H   2.95717540341318      0.55312927142933     -1.10343209263692
  H   1.31738780763697      1.12895847137410     -1.35225986688778
  H   2.18230705329521      1.50018168489562      0.14264625125353
  H   2.27531291070247     -0.98481818243819      0.66876166404626
  H   1.28295279036200     -1.30630438218330     -0.74751461578783
  H   0.49528432246088      0.33810290532775      1.70807116930139
  H   0.10922227737823     -1.38568710752952      1.42456620072547
  H   -0.63162673732172      2.09027377052932      0.41869438561229
  H   -2.17673077451436      1.60173052031639     -0.47503093542038
