14
Coordinates from ORCA-job orca2
  C   -1.38182175461761     -0.00669225919251     -0.00002139394956
  C   -0.67720809914917     -1.23600524743632     -0.00001140721231
  C   0.68340593517842     -1.22977200411181     -0.00000365935845
  C   1.38184661521557      0.00668969813157     -0.00000453769430
  C   0.67723260573917      1.23600282958841     -0.00001496957056
  C   -0.68338153808662      1.22976937196540     -0.00002290300798
  H   -1.25395631462850      2.14651480282379     -0.00003139934419
  H   1.22046616166205      2.17159823827625     -0.00001469230428
  O   2.69977998079228     -0.07150120211571      0.00000418873362
  H   3.12293082435569      0.80241208704264      0.00000285533049
  H   1.25398242603251     -2.14651635841781      0.00000339029719
  H   -1.22044210127056     -2.17160032638199     -0.00001085306012
  O   -2.69975518768546      0.07149859848957     -0.00002946671809
  H   -3.12290635353776     -0.80241452866147     -0.00002695214149
