17
Coordinates from ORCA-job orca2
  C   1.38698081520580      1.64436966328058     -0.00001716174041
  C   2.28516943972790      0.54266473010198      0.00000822919922
  C   1.82155252853430     -0.74391963610202      0.00003486127527
  C   0.43981218929776     -0.96336307202520      0.00003670821961
  C   -0.47776912729738      0.16322600771528      0.00000916206119
  C   0.02328195619347      1.46269935774770     -0.00001692557109
  H   -0.64029382183519      2.31273115190208     -0.00003599819348
  O   -1.74606150118734     -0.20143202423164      0.00001284766961
  C   -2.80280001463500      0.79121759263342     -0.00001602595076
  H   -2.73132864324862      1.40146452766125     -0.89626391131077
  H   -2.73134274100658      1.40150121414517      0.89620803351291
  H   -3.72438059806053      0.22526574426369     -0.00001197848002
  O   -0.01836039786449     -2.19611167417794      0.00006310887292
  H   -0.99239152173676     -2.20302326883508      0.00006041089368
  H   2.48314694235403     -1.59714922037480      0.00005472737618
  H   3.34846421121102      0.73197893471434      0.00000620740636
  H   1.78792038434759      2.64739587158117     -0.00003659524044
