18
Coordinates from ORCA-job geo
  C   -1.19129305193568     -1.08632387182409     -0.06998792183371
  C   -0.00192046132421     -1.78703675964000     -0.08593247593341
  C   1.18573482630697     -1.08461318272330     -0.04161282527255
  C   1.20250701573168      0.35926049168772      0.02118619298475
  C   2.50036779038973      1.05059007975707      0.06889375050368
  H   2.40400387232856      2.12943514063752      0.11042237548269
  H   3.08159490500229      0.71225293697649      0.93274371670362
  H   3.11059998574459      0.78060312464876     -0.79883172577175
  C   -0.00533442441597      1.04081219501792      0.03568706372559
  C   -1.21157168581925      0.35765432656170     -0.00809127475778
  C   -2.51100802918397      1.04725125736842      0.00679189074794
  H   -3.09471348682723      0.78371510575739     -0.88113563387953
  H   -2.41710601713939      2.12587789196881      0.05854873825587
  H   -3.11793346956557      0.70166236360221      0.84970003130209
  H   -0.00662750004600      2.12056207659166      0.08250229151981
  H   2.13096868888715     -1.61051917263874     -0.05281320865335
  H   -0.00057083936218     -2.86580763818831     -0.13233957951780
  H   -2.13530811877152     -1.61345636556122     -0.10346140560616
