13
Coordinates from ORCA-job orca2
  C   -1.84716963602257     -0.00487493899949      0.00000606422771
  C   -1.15654333646968      1.22279945513760     -0.00000217482014
  C   0.20778439417676      1.23541758289978     -0.00002220430670
  C   0.90855865186315     -0.00790734815719     -0.00003427912506
  C   0.21320061612894     -1.24980679965982     -0.00002574819953
  C   -1.15036468893708     -1.23589017823868     -0.00000592743202
  H   -1.70487772632693     -2.16264039060092      0.00000063575839
  H   0.76738027294490     -2.17929676336356     -0.00003486616175
  O   2.21912811376357      0.07416335560690     -0.00005378685333
  H   2.65146585512874     -0.79777104183624     -0.00006131806366
  H   0.78156197075276      2.15045415811163     -0.00002943684943
  H   -1.71045074100977      2.14972307076544      0.00000736148788
  H   -2.92784954599279     -0.00901516166545      0.00002198033762
