13
Coordinates from ORCA-job orca2
  C   0.13541692044010      0.00204809504793      0.00004697506195
  C   -0.55417173676759     -1.23269778673820     -0.00000655476145
  C   -1.91863828407576     -1.23926638787119     -0.00009108737920
  C   -2.62160651394932     -0.00875503491231     -0.00012271798679
  C   -1.92451104985337      1.22677254398583     -0.00006825258036
  C   -0.56102580035649      1.23053449818529      0.00001648751508
  H   -0.01339483400596      2.16072813597367      0.00005908168047
  H   -2.49350506148089      2.14454706096414     -0.00009418380852
  O   -3.93798926005336      0.06682205318035     -0.00020505350266
  H   -4.36119952802985     -0.80751068527567     -0.00023224302491
  H   -2.46158804329166     -2.17508431256696     -0.00013440313368
  H   0.00027099860091     -2.15892439918324      0.00001788852657
  Br  1.98290289282324      0.00363601921038      0.00015796339348
