14
Coordinates from ORCA-job orca2
  C   1.03000281796152      0.00197801295024     -0.00000557485619
  C   0.32274275926821      1.23470361560799     -0.00000169320367
  C   -1.03786202706885      1.23240062562720      0.00000652380553
  C   -1.73336372950245     -0.00987860575781      0.00000652768567
  C   -1.03224788798708     -1.24679817461404     -0.00000064159339
  C   0.32834158135502     -1.23813188677269     -0.00000880200772
  H   0.88711810353846     -2.16192784366477     -0.00001455803719
  H   -1.57933889877788     -2.18020128825547     -0.00000081337226
  O   -3.04338210817184      0.06684853664050      0.00001345036749
  H   -3.47523459977385     -0.80494615417364      0.00001343855878
  H   -1.61150775267377      2.14737316772819      0.00001167988699
  H   0.87429709099655      2.16268071733269     -0.00000209070803
  C   2.42809118017449      0.00220484902920      0.00000394173217
  N   3.59549677066147      0.00087612832241      0.00012131174181
