22
Coordinates from ORCA-job orca2
  C   3.30778047489650     -0.01092177392772      0.00002652669667
  C   2.86603193763536     -1.33077645584449      0.00001652794829
  C   1.51340311844196     -1.60054069203251      0.00001268689010
  C   0.56430409271347     -0.54406614431442      0.00001859967129
  C   -0.80364162751981     -0.79935403915016      0.00001389762718
  C   -1.73008417967265      0.27293044068553      0.00001934523398
  O   -3.03983238698312      0.11691296009603      0.00001446711535
  C   -3.64385568504307     -1.19347566039247      0.00000848300357
  H   -3.36210830118970     -1.74098583060928      0.89624649047833
  H   -4.71027914811358     -1.01105327149295      0.00001416260526
  H   -3.36211580291199     -1.74097316558505     -0.89623969186127
  C   -1.27088212539633      1.60784443225772      0.00002955820420
  C   0.06644705331201      1.86124027772482      0.00003450037822
  C   1.02656515706766      0.80771496968352      0.00002902739629
  C   2.39368946122257      1.04886908041224      0.00003276459108
  H   2.75716238573936      2.06744129453763      0.00004060095723
  H   0.41827895996446      2.88376139938368      0.00004286452696
  H   -2.00176334633533      2.40254096713180      0.00003347841296
  H   -1.14935974192664     -1.82180179255739      0.00000555138066
  H   1.16159208321740     -2.62322519137070      0.00000527080610
  H   3.58037131314975     -2.14082105267993      0.00001176157916
  H   4.36703930773172      0.20262954804409      0.00002942635839
