14
Coordinates from ORCA-job orca2
  C   0.75814274723510     -1.16969718221189      0.23796957575692
  C   -0.75805888071746     -1.16974812317412     -0.23802302500035
  H   -1.26539010428564     -2.02049433770050      0.20608068261147
  H   -0.77233927670167     -1.19950851835557     -1.32635912069937
  O   -1.31946364867668     -0.00004726782914      0.27322175022674
  C   -0.75814783061611      1.16970795117683     -0.23799347832924
  C   0.75805559322656      1.16975936333975      0.23799919615922
  H   1.26538676733897      2.02050506683881     -0.20610553849920
  H   0.77233415947409      1.19951936649378      1.32633534492864
  O   1.31945987067661      0.00005883664516     -0.27324533303084
  H   -1.26554287276693      2.02040449001668      0.20613246924571
  H   -0.77242836190665      1.19949584442875     -1.32632883900186
  H   1.26553876899093     -2.02039348467837     -0.20615593342487
  H   0.77242456872888     -1.19948460499019      1.32630504905703
