16
Coordinates from ORCA-job orca2
  C   -0.70891117027972      1.40465804384953      0.04759045675523
  C   -1.88344262012059      0.70767432118036      0.03257971206569
  C   -1.88347492650853     -0.70760339147109     -0.03259690507934
  C   -0.70897536599448     -1.40464122955678     -0.04760341134024
  C   0.51947961065500     -0.72326871066944      0.02587162397437
  N   1.67944554397262     -1.39780411819323      0.12596412298568
  H   2.51022918779398     -0.97429201014807      0.50325972631109
  H   1.66289119534290     -2.40379377227493      0.16903008066296
  C   0.51951285105610      0.72322866183825     -0.02587970379506
  N   1.67950916341069      1.39771075179991     -0.12597087488177
  H   2.51027950229116      0.97415892634842     -0.50325083470977
  H   1.66300423648841      2.40370139202036     -0.16903118501388
  H   -0.71016502971464     -2.48569409731433     -0.05673982655866
  H   -2.82338412716814     -1.23897301762941     -0.05152425919006
  H   -2.82332751154030      1.23908712373002      0.05150384307914
  H   -0.71005073968446      2.48571092649044      0.05672643473462
