29
Coordinates from ORCA-job orca2
  C   -1.43658115376262     -1.24246871666104     -0.02277056624126
  C   -0.64717916025601     -0.00678041308807      0.31195816002660
  C   -1.28256977999808      1.22616567819289      0.34720361465556
  C   -2.69527322706436      1.43324841643367     -0.01672853080356
  C   -3.35826947788000      0.23341433594132     -0.66741436474040
  C   -2.94324185879231     -1.03126786736985      0.05543927589449
  H   -3.24796178684883     -0.97446264232156      1.10169555633929
  H   -3.43874937874480     -1.90380957613371     -0.36449171730201
  H   -3.06636875837636      0.17516607360264     -1.71751548211004
  H   -4.43892446059804      0.35340709484638     -0.65132480700548
  H   -3.22915736842082      1.71360537849830      0.90331852188389
  H   -2.76768296201523      2.33153097690829     -0.63687781161826
  H   -0.74517951482197      2.10757016218749      0.66116736873553
  N   0.67222638586778     -0.13084398529480      0.58528640772847
  C   1.58213780751129      0.97283752073805      0.87376076793972
  H   1.05424719698900      1.89354374273321      1.07585909933701
  C   2.53981714198049      1.15426921584202     -0.30970028459364
  H   3.26738377521409      1.92496508481237     -0.07103761432152
  H   1.97076871169553      1.46299258019920     -1.19393123648249
  O   3.25355560099261     -0.03430580234080     -0.55297247893247
  C   2.39290509207079     -1.11120841922992     -0.83055642427361
  H   1.81602563850193     -0.93110480085119     -1.74397567180758
  C   1.42598481548587     -1.35488862224240      0.34020120890203
  H   2.00039704171274     -1.59148705581173      1.23384452760060
  H   0.77371141989395     -2.18586629561810      0.11368412613497
  H   3.01147534859617     -1.99322900139328     -0.97086773997983
  H   2.15523270758870      0.70734207038215      1.75968249019653
  H   -1.16393592757435     -1.57386391558865     -1.02838157461311
  H   -1.15279226894718     -2.04812261737292      0.65309847945057
