20
Coordinates from ORCA-job geo
  C   -0.50988151726237      1.23165304936312      0.07281759989489
  C   -1.87986124383861      1.21404591117331      0.10775404185082
  C   -2.57723235757586      0.00538953455338      0.01807529887915
  C   -1.87744722808201     -1.19983223948567     -0.09742081735035
  C   -0.50712723880709     -1.21000824451751     -0.11422473409134
  C   0.21610879934920      0.01273313559826     -0.03470803467378
  N   1.57074695491263      0.01427405816556     -0.05974499396675
  C   2.34778826849218      1.23471180751892     -0.23764449027905
  H   3.28486097528546      0.98036319740819     -0.72124333353716
  H   1.82108032404678      1.94828435602613     -0.85774165031004
  H   2.57276000619808      1.68361764295946      0.73096514145272
  C   2.35085423949092     -1.20883751741688      0.09336475023134
  H   3.32619394251030     -0.94950483678865      0.48944839216390
  H   1.86956485756503     -1.89516175787916      0.77858340300246
  H   2.49026360939943     -1.69333136695617     -0.87386084230273
  H   0.01230647444432     -2.14640553895212     -0.23691867336516
  H   -2.41853730313485     -2.13083242928755     -0.18050481393956
  H   -3.65740547413478      0.00260183983907      0.03836325728245
  H   -2.42221439822557      2.14219154751956      0.21195065753243
  H   0.00814830936680      2.17084785115873      0.17797984152577
