32
Coordinates from ORCA-job orca2
  C   1.26586597542679      0.23876712671753      0.11583278861456
  C   1.21859998694431      1.54935986094247     -0.28627104966897
  C   0.00002762008501      2.20261448415111     -0.49140236511801
  C   -1.21856097476778      1.54938802687282     -0.28627736176140
  C   -1.26585993641951      0.23879655687344      0.11582656182525
  C   -0.00000547529074     -0.43222033819066      0.31312028634352
  N   -0.00002176797547     -1.70753687962262      0.69675015562613
  H   0.85699732840582     -2.21043384924460      0.85432897632097
  H   -0.85705428560253     -2.21041234491039      0.85432475885236
  C   -2.56564220835595     -0.49946879776168      0.29223402631358
  C   -2.87266134421111     -1.32722524282763     -0.96723555514408
  H   -3.77958822027197     -1.90807720701604     -0.81609706308290
  H   -3.03251423849892     -0.66952317936952     -1.81867163745799
  H   -2.07229508328896     -2.01661553457136     -1.23265260798078
  H   -2.46020004090073     -1.18816923864910      1.13731281646921
  C   -3.74267647397247      0.40386691562571      0.63686613053512
  H   -4.02267530687712      1.04362754088722     -0.19757574486456
  H   -4.61061929070222     -0.20650116101032      0.87199439473394
  H   -3.53270261484171      1.03292395108336      1.49914393567328
  H   -2.13475510978822      2.09574915080078     -0.44578058294548
  H   0.00003922082417      3.23596631936876     -0.80775134181170
  H   2.13480856316131      2.09569826413199     -0.44576886144879
  C   2.56563042778818     -0.49952891239859      0.29224494637713
  H   2.46016850422513     -1.18822658848436      1.13732344389713
  C   2.87263475597589     -1.32729121771944     -0.96722430630751
  H   3.03248763103971     -0.66959251140818     -1.81866302704734
  H   2.07226220122489     -2.01667670418157     -1.23263522719726
  H   3.77955816874000     -1.90814950761072     -0.81608935930969
  C   3.74268473599310      0.40377981588169      0.63687989139981
  H   4.02270152080665      1.04353099371913     -0.19756312226221
  H   4.61061172855056     -0.20660853301227      0.87201381522805
  H   3.53272260257386      1.03284434093304      1.49915508519864
