14
Coordinates from ORCA-job orca2
  C   1.50993682580527     -1.22719300920598      0.00000236912411
  C   2.19824707485220      0.00003824569153      0.00001715994814
  C   1.50991098360609      1.22725473321355     -0.00000217156298
  C   0.14329065614434      1.23926655612782     -0.00003679311559
  C   -0.56963585891588      0.00000798271007     -0.00004593562549
  C   0.14331678354840     -1.23923444010067     -0.00003148667986
  H   -0.41240435824115     -2.16480136889521     -0.00004562784243
  C   -1.94894271429473     -0.00000530039707     -0.00007388728264
  C   -3.16983081571298     -0.00001853493684      0.00013367907089
  H   -4.23594986756621      0.00000411321662      0.00036249322867
  H   -0.41244917852049      2.16482226078939     -0.00005580691066
  H   2.06512284934706      2.15350417856273      0.00000784866054
  H   3.27955112859179      0.00004834100533      0.00004361436319
  H   2.06517029135628     -2.15342955778126      0.00001534462411
