18
Coordinates from ORCA-job geo
  C   1.70566471466843      1.05632220636360     -0.03546568667666
  C   0.56397369748992      1.81568379087440     -0.00354544934180
  C   -0.68491414716567      1.20517878646644      0.00574809268259
  C   -0.79054532209753     -0.22151051750690     -0.01784399530459
  C   0.35300399187706     -0.99664033462534     -0.05013167955785
  C   1.60390265829858     -0.37863259073734     -0.05922084178243
  N   2.73550575940087     -1.09278159117701     -0.09012526551596
  H   2.72311028495755     -2.09990625810595     -0.10749240659495
  H   3.64010398194132     -0.65171723214958     -0.09623214715528
  H   0.25973572775775     -2.07269930623255     -0.06779821794527
  O   -1.94866878210091     -0.86783127189354     -0.01037286775924
  C   -3.20021638960576     -0.15359637796321      0.02073558887909
  H   -3.96142788601084     -0.92289223602042      0.01950087318151
  H   -3.31010832221480      0.46974200685756     -0.86365131609141
  H   -3.28270651493862      0.43979446578129      0.92840401940900
  H   -1.57431664318894      1.81438098471933      0.03122728874507
  H   0.63137930739254      2.89315405732339      0.01444901940346
  H   2.68116078353903      1.52182101802584     -0.04303850857529
