14
Coordinates from ORCA-job geo
  C   -1.17072412725440     -0.45386568782903      0.11285667805062
  N   0.06712163405706     -1.16445739467168     -0.00018471043838
  C   1.21516360203430     -0.31643974545353     -0.11302720455372
  C   0.67697624727877      1.07395425783311      0.20579809063262
  H   0.77603177192887      1.26692557661598      1.27256920360867
  H   1.21937838457364      1.84865766961329     -0.32470394577888
  C   -0.79588107998710      0.98917413435550     -0.20596001062629
  H   -0.91660728839661      1.16973259160095     -1.27263503806931
  H   -1.42343963195123      1.69629422836828      0.32499250151119
  H   1.57955398286621     -0.39366824386306     -1.15171608163171
  H   2.03084726194399     -0.69384348825398      0.50876496289813
  H   0.12536169886521     -2.17888328934011     -0.00035722442073
  H   -1.52373670731895     -0.57243100171707      1.15157489631723
  H   -1.93786938173977     -0.92255886835864     -0.50860594099943
