24
Coordinates from ORCA-job orca2
  C   -2.34121493622168     -1.20982822076728      0.39903855907001
  C   -3.60649723936716     -0.67181908050303      0.38929265452990
  C   -3.80874841669575      0.63211824340387     -0.06354293588609
  C   -2.73206003194194      1.39008263105892     -0.52374835508614
  C   -1.45686957836868      0.87232772556667     -0.51364012933525
  C   -1.24684631700749     -0.43165096828843     -0.02694801436514
  N   0.00000200466485     -1.01270322721263      0.00000067525852
  C   1.24684789911794     -0.43164809019738      0.02695138837847
  C   1.45686659479561      0.87233358897359      0.51363874103710
  C   2.73205517252674      1.39009268039701      0.52374693153215
  C   3.80874683675214      0.63212994763275      0.06354635338792
  C   3.60650063659872     -0.67181034883094     -0.38928346566827
  C   2.34122027835916     -1.20982358361912     -0.39902959654274
  H   2.17671511982345     -2.21487993544052     -0.76498310988422
  H   4.44277772716148     -1.26187885076106     -0.73406242444104
  H   4.80594181712739      1.04746903002556      0.08049843740141
  H   2.90046304118476      2.38160681182466      0.91800988618446
  H   0.63898317639255      1.43262072129233      0.93819793458493
  H   0.00000288616950     -2.02454258280678     -0.00000009631772
  H   -0.63898878775420      1.43261619378258     -0.93820265460874
  H   -2.90047205773450      2.38159476747590     -0.91801457441548
  H   -4.80594463758836      1.04745430150269     -0.08049630085932
  H   -4.44277167336419     -1.26188879283681      0.73407610056086
  H   -2.17670491463035     -2.21488176167253      0.76499749548444
