17
Coordinates from ORCA-job orca2
  C   -1.43490513304648      0.00002754771879      0.18516888451712
  C   -0.69969156447877     -1.25634618057579     -0.22416885809329
  C   0.76078791634999     -1.22663139185618      0.35782499858493
  N   1.35659362219536     -0.00002858618145     -0.04319649041154
  H   1.93692876003250     -0.00004014146820     -0.87477213135413
  C   0.76083725663811      1.22659796166347      0.35782572410617
  C   -0.69964085208456      1.25637180037288     -0.22416834835694
  H   -1.16179757152499      2.16166736764370      0.16543178770928
  H   -0.63962211828977      1.35230371367502     -1.30711926750866
  H   1.34403828407133      2.06764965407505     -0.00186076275346
  H   0.69055766042041      1.25325774409492      1.44452643625679
  H   1.34395483982921     -2.06770634328005     -0.00186237452993
  H   0.69050734013102     -1.25328920033289      1.44452571141392
  H   -1.16188474085056     -2.16162326924715      0.16543095483740
  H   -0.63967674242510     -1.35227987878664     -1.30711984660460
  H   -2.41841438454182      0.00004730397391     -0.29354311347341
  H   -1.61756147242589      0.00003109851059      1.26043329566035
