17
Coordinates from ORCA-job orca2
  C   1.35325689839680      0.00839459517166      0.00000623640075
  C   0.74617572340933      1.28538961016063      0.00000568223953
  C   -0.61155700794409      1.39148164552870      0.00000329783566
  C   -1.42044446973938      0.22589903031634      0.00000124536102
  C   -0.81849269975614     -1.05296237110502      0.00000154985446
  C   0.54372677953775     -1.15407156698214      0.00000376479857
  H   1.00779359297627     -2.13044806437306      0.00000403291879
  H   -1.41882687146938     -1.94858844092671      0.00000014252639
  O   -2.71886759015678      0.44647128748086     -0.00000085181619
  C   -3.66166238476507     -0.64799791880756     -0.00000315113475
  H   -4.63697277835662     -0.18016852961908     -0.00000482445777
  H   -3.53596511464831     -1.25139744520739     -0.89571144822895
  H   -3.53596856554811     -1.25139819622186      0.89570512895111
  H   -1.10062967066683      2.35417892304912      0.00000276566699
  H   1.35353095028427      2.17920871190400      0.00000689499479
  S   3.06051178723330     -0.23211017916384      0.00000815833816
  H   3.41949642121300      1.07057390879535     -0.00002862424855
