32
Coordinates from ORCA-job orca2
  C   1.65913176057452      1.41842955781806      0.04133280458337
  C   1.56590060175900      0.86872569874083     -1.24559706079992
  C   2.21771295897368     -0.29940005708758     -1.53543884536590
  C   2.99167609080947     -0.94719847769862     -0.55220117103663
  C   3.08813951579079     -0.39529759511287      0.73325409179686
  C   2.41733304516192      0.77283482876829      1.02424330034768
  H   2.47544128750548      1.18683001790288      2.02124358956055
  H   3.67290147797344     -0.87271828357052      1.50297215733348
  O   3.59119680729916     -2.07117087178096     -0.94646287546039
  C   4.42684233713056     -2.79014425720920     -0.02924190271163
  H   3.85217317640855     -3.13450566206607      0.82915815588731
  H   5.26119697401081     -2.17212025200362      0.29806727433604
  H   4.79941446044129     -3.64178826598415     -0.58431810734860
  H   2.17700961301669     -0.73120096623748     -2.52455262019102
  H   0.99513131028307      1.37359334191828     -2.01112797730182
  S   0.93795943081980      2.95726733886117      0.46790579649090
  S   -0.93770370564826      2.95757201589886     -0.46681065750238
  C   -1.65906163148770      1.41870571118077     -0.04065201008338
  C   -1.56640261599207      0.86897365499737      1.24630595856478
  C   -2.21835410596468     -0.29915161737887      1.53584107198405
  C   -2.99191543215503     -0.94690341555012      0.55226172406411
  C   -3.08780121809253     -0.39497634869061     -0.73322558900221
  C   -2.41682471334379      0.77314140399731     -1.02390609774322
  H   -2.47448557782416      1.18715783408723     -2.02092284771050
  H   -3.67223275663340     -0.87237139890580     -1.50320958588431
  O   -3.59163896594675     -2.07087044448428      0.94624187278286
  C   -4.42696481518641     -2.78976080319143      0.02866804248504
  H   -3.85199639868816     -3.13408545834104     -0.82954766649632
  H   -4.79976269282701     -3.64143192335338      0.58355293562208
  H   -5.26118668624454     -2.17169475186321     -0.29890441214167
  H   -2.17808096658236     -0.73097883126843      2.52496170152499
  H   -0.99594666534136      1.37381377760717      2.01209464941579
