16
Coordinates from ORCA-job orca2
  C   -1.80444147953717     -1.44000710089187     -0.00000128861463
  C   -0.61927475660284     -0.71323503369654      0.00000046475247
  C   -0.61927671589713      0.71323666446650     -0.00000532428718
  C   -1.80444533678205      1.44000566406739      0.00001183271695
  C   -2.97101433894426      0.70833839660379      0.00001596905638
  C   -2.97101236313177     -0.70834279338037      0.00000882867672
  H   -3.91852254633395     -1.22651114917818      0.00001289140796
  H   -3.91852594712364      1.22650417941994      0.00002384979563
  H   -1.81120414133767      2.51968169107271      0.00001219769147
  N   0.69048471824574      1.08977369005707     -0.00003308887988
  C   1.52402953422004      0.00000383891694     -0.00001414417309
  S   3.18439922580699      0.00000567216002     -0.00002413726170
  N   0.69048763397680     -1.08976833551065      0.00001459205497
  H   1.04948642659295     -2.03302285493641      0.00003738256492
  H   1.04948038914526      2.03302940489819     -0.00006862693700
  H   -1.81119750229730     -2.51968313406853     -0.00000149856398
