22
Coordinates from ORCA-job orca2
  C   0.86800397333015     -1.21465958397713     -0.00001236179103
  C   1.22827300615457      0.16702037499251     -0.00001973216692
  C   0.19394383987783      1.13015970546728      0.00000278820085
  C   -1.13455198952131      0.78334415590926      0.00001177362820
  C   -1.47552729333559     -0.61152869628772      0.00000503849090
  C   -0.44630508015048     -1.57623157259194     -0.00000237186272
  H   -0.71603835414072     -2.62259818204784      0.00000276523256
  C   -2.88671933221574     -1.04165684895749     -0.00005249433112
  H   -2.98996345320778     -2.12083399081451      0.00028342783032
  H   -3.41628296731004     -0.64157483080743     -0.86788270476035
  H   -3.41660576596638     -0.64094818780397      0.86727904571204
  C   -2.19698582193715      1.82386812577453      0.00006505227646
  H   -2.84287473419427      1.73204583418646      0.87361457619258
  H   -2.84318935224455      1.73185253976997     -0.87322727954905
  H   -1.77526535688136      2.82329218181530     -0.00011250180472
  H   0.46745465306983      2.17662154696786      0.00000375283078
  C   2.57766125910008      0.61527509307658     -0.00004988859411
  C   3.68813077329449     -0.17090320874733     -0.00010084086164
  H   3.65005360126424     -1.25022570962762     -0.00012327147991
  H   4.67198313348291      0.27405756307293     -0.00012455598415
  H   2.72217689162972      1.68914981846597     -0.00003865110451
  H   1.62985416990154     -1.97900172783570     -0.00001536610445
