10
Coordinates from ORCA-job geo
  C   -1.60620727495599     -0.08500168091976     -0.01243696013693
  C   -1.12134086379126      1.23969471632734     -0.00893086056189
  N   0.19418304053798      1.37968266689904      0.02965926379753
  C   0.78842060003112      0.18830949301778      0.05774657511593
  N   2.09474636158473      0.04702385251199      0.09853671345959
  H   2.55254238790290     -0.85140689354846      0.12025598548936
  H   2.67414856258633      0.87673116143564      0.10931706243473
  S   -0.33585997479482     -1.21484591881562      0.03555782180789
  H   -1.76280374805145      2.10839797489191     -0.03571519816329
  H   -2.63591679104954     -0.40260717179986     -0.04086250324293
