13
Coordinates from ORCA-job orca2
  C   -0.12466900120926     -1.09928600614219      0.00705721140431
  C   -1.49035175667979     -0.68247242008292     -0.00854387066161
  C   -1.49038578487880      0.68235484083123     -0.00854038636724
  C   -0.12469639462985      1.09924874667239      0.00706049004240
  N   0.67643755934484      0.00002197510784      0.01888980572216
  C   2.14171935757826      0.00001747998597     -0.01488108824964
  H   2.50928911554293     -0.88187756751295      0.49704009203240
  H   2.48963091267701     -0.00072772991883     -1.04382074166356
  H   2.50923702320482      0.88269635381875      0.49571677550345
  H   0.28922010306368      2.09458989123728      0.01003271292305
  H   -2.33706630782753      1.34677293952394     -0.01245106941557
  H   -2.33700276168909     -1.34692743117675     -0.01245674020014
  H   0.28932063550276     -2.09459697234375      0.01002670893002
