15
Coordinates from ORCA-job orca2
  C   1.74112647692782     -1.44473363221719     -0.00000925869023
  C   0.60017164789726     -0.67434386488722      0.00000878542860
  C   0.62725377282068      0.74168840823511     -0.00000546630121
  C   1.82753977411096      1.44677632408358      0.00004304657047
  C   2.97154410257097      0.68049259381808      0.00004509855110
  C   2.93122939347800     -0.73640299755558      0.00002424394220
  H   3.86472935892166     -1.27972117701239      0.00004218453630
  H   3.93457068099492      1.16905118644435      0.00006422338353
  H   1.86171245159055      2.52576468568898      0.00005485475464
  N   -0.68185849357080      1.11214066523669     -0.00009274027903
  C   -1.50355693766966      0.01874373775680     -0.00005861424136
  S   -3.14366297651892     -0.02824429227118     -0.00001790531891
  O   -0.69387633850597     -1.08675436746035      0.00003481899124
  H   -1.05065859338669      2.05335047798125     -0.00019577528817
  H   1.70523118033923     -2.52307674784094     -0.00001809603916
